REMARK  8 active torsions:
REMARK  status: ('A' for Active; 'I' for Inactive)
REMARK    1  A    between atoms: C1_1  and  C4_4 
REMARK    2  A    between atoms: C9_9  and  C12_12 
REMARK    3  A    between atoms: C17_18  and  C19_20 
REMARK    4  A    between atoms: C18_19  and  C20_21 
REMARK    5  A    between atoms: C20_21  and  C21_22 
REMARK    6  A    between atoms: C21_22  and  C22_23 
REMARK    7  A    between atoms: C22_23  and  O23_24 
REMARK    8  A    between atoms: O23_24  and  C26_27 
ROOT
ATOM      1  C1  LC3 A 501      -7.948   9.082 -62.629  1.00 40.79     0.064 A 
ATOM      2  C2  LC3 A 501      -8.561  10.016 -61.811  1.00 42.50     0.006 A 
ATOM      3  C3  LC3 A 501      -7.745   7.805 -62.151  1.00 37.77     0.006 A 
ATOM      4  C5  LC3 A 501      -8.944   9.672 -60.523  1.00 35.31     0.002 A 
ATOM      5  C6  LC3 A 501      -8.129   7.461 -60.876  1.00 32.92     0.002 A 
ATOM      6  C9  LC3 A 501      -8.718   8.390 -60.052  1.00 32.57     0.018 A 
ENDROOT
BRANCH   1   7
ATOM      7  C4  LC3 A 501      -7.496   9.387 -64.011  1.00 48.75     0.211 C 
ATOM      8  O8  LC3 A 501      -6.686   8.568 -64.535  1.00 60.24    -0.644 OA
ATOM      9  O7  LC3 A 501      -7.913  10.442 -64.558  1.00 40.39    -0.644 OA
ENDBRANCH   1   7
BRANCH   6  10
ATOM     10  C12 LC3 A 501      -9.044   7.971 -58.689  1.00 37.04     0.081 A 
ATOM     11  C11 LC3 A 501      -8.402   8.549 -57.664  1.00 34.87     0.019 A 
ATOM     12  C10 LC3 A 501      -8.689   8.125 -56.317  1.00 30.97     0.003 A 
ATOM     13  C15 LC3 A 501      -9.580   7.153 -56.070  1.00 35.89     0.019 A 
ATOM     14  C14 LC3 A 501     -10.256   6.537 -57.156  1.00 29.77     0.078 A 
ATOM     15  N13 LC3 A 501      -9.957   6.974 -58.426  1.00 33.63    -0.253 N 
ATOM     16  C18 LC3 A 501     -11.215   5.547 -57.256  1.00 28.91     0.018 A 
ATOM     17  N16 LC3 A 501     -10.673   6.306 -59.350  1.00 32.91    -0.286 N 
ATOM     18  C17 LC3 A 501     -11.433   5.447 -58.661  1.00 31.01     0.135 A 
ATOM     19  H16 LC3 A 501     -10.642   6.429 -60.362  1.00  0.00     0.188 HD
BRANCH  18  20
ATOM     20  C19 LC3 A 501     -12.400   4.525 -59.421  1.00 33.06     0.229 C 
ATOM     21  O25 LC3 A 501     -13.514   4.275 -58.889  1.00 31.87    -0.643 OA
ATOM     22  O24 LC3 A 501     -12.028   4.149 -60.554  1.00 43.15    -0.643 OA
ENDBRANCH  18  20
BRANCH  16  23
ATOM     23  C20 LC3 A 501     -11.833   4.789 -56.145  1.00 24.34     0.032 C 
BRANCH  23  24
ATOM     24  C21 LC3 A 501     -13.234   5.276 -55.822  1.00 22.35     0.037 C 
BRANCH  24  25
ATOM     25  C22 LC3 A 501     -13.310   6.420 -54.839  1.00 21.02     0.149 C 
BRANCH  25  26
ATOM     26  O23 LC3 A 501     -12.174   6.352 -53.975  1.00 25.92    -0.331 OA
BRANCH  26  27
ATOM     27  C26 LC3 A 501     -12.097   7.438 -53.117  1.00 21.98     0.094 A 
ATOM     28  C27 LC3 A 501     -12.525   8.692 -53.466  1.00 22.94     0.024 A 
ATOM     29  C28 LC3 A 501     -12.422   9.744 -52.579  1.00 28.78     0.002 A 
ATOM     30  C29 LC3 A 501     -11.860   9.515 -51.337  1.00 27.24     0.000 A 
ATOM     31  C30 LC3 A 501     -11.416   8.249 -50.993  1.00 23.73     0.002 A 
ATOM     32  C31 LC3 A 501     -11.523   7.200 -51.883  1.00 24.29     0.022 A 
ATOM     33  C32 LC3 A 501     -10.848   8.026 -49.759  1.00 25.43     0.000 A 
ATOM     34  C35 LC3 A 501     -11.076   5.931 -51.562  1.00 17.17     0.002 A 
ATOM     35  C34 LC3 A 501     -10.512   5.705 -50.322  1.00 19.85     0.000 A 
ATOM     36  C33 LC3 A 501     -10.398   6.759 -49.438  1.00 27.77     0.000 A 
ENDBRANCH  26  27
ENDBRANCH  25  26
ENDBRANCH  24  25
ENDBRANCH  23  24
ENDBRANCH  16  23
ENDBRANCH   6  10
TORSDOF 8
